<?xml version="1.0" encoding="UTF-8"?>
<!DOCTYPE facilities SYSTEM "http://www.matsim.org/files/dtd/facilities_v2.dtd">

<facilities>
	<facility id="f_auto_0" linkId="2334" x="528634.2579046559" y="176896.66392752415">
		<activity type="home">			<opentime day="wkday" start_time="undefined" end_time="9223372036854775807:00:00" />

		</activity>
	</facility>
	<facility id="f_auto_1" linkId="5221378346666464887_5221366706420448015" x="526119.234602612" y="179603.58648628547">
		<activity type="leisure">			<opentime day="wkday" start_time="undefined" end_time="9223372036854775807:00:00" />

		</activity>
	</facility>
	<facility id="f_auto_10" linkId="5221366439366159649_5221377837590084573" x="527078.6194482464" y="176482.43567397105">
		<activity type="home">			<opentime day="wkday" start_time="undefined" end_time="9223372036854775807:00:00" />

		</activity>
	</facility>
	<facility id="f_auto_100" linkId="5567" x="529761.7368782632" y="178365.99890125444">
		<activity type="shop">			<opentime day="wkday" start_time="undefined" end_time="9223372036854775807:00:00" />

		</activity>
	</facility>
	<facility id="f_auto_101" linkId="3525" x="525178.4512428247" y="178523.57080106268">
		<activity type="home">			<opentime day="wkday" start_time="undefined" end_time="9223372036854775807:00:00" />

		</activity>
	</facility>
	<facility id="f_auto_102" linkId="5221366260093413071_5221366260012653869" x="530655.2191989479" y="177343.76775792852">
		<activity type="gym">			<opentime day="wkday" start_time="undefined" end_time="9223372036854775807:00:00" />

		</activity>
	</facility>
	<facility id="f_auto_103" linkId="5221366439366159649_5221366882964419571" x="526618.43590109" y="176007.75885299646">
		<activity type="home">			<opentime day="wkday" start_time="undefined" end_time="9223372036854775807:00:00" />

		</activity>
	</facility>
	<facility id="f_auto_104" linkId="5221365581208631625_5221365583920038271" x="529408.4088370439" y="176304.24473508855">
		<activity type="shop">			<opentime day="wkday" start_time="undefined" end_time="9223372036854775807:00:00" />

		</activity>
	</facility>
	<facility id="f_auto_105" linkId="664" x="523088.2216705148" y="177799.98926093773">
		<activity type="home">			<opentime day="wkday" start_time="undefined" end_time="9223372036854775807:00:00" />

		</activity>
	</facility>
	<facility id="f_auto_106" linkId="7876" x="526382.9227327132" y="175486.0461534211">
		<activity type="medical">			<opentime day="wkday" start_time="undefined" end_time="9223372036854775807:00:00" />

		</activity>
	</facility>
	<facility id="f_auto_107" linkId="7113" x="526529.72456857" y="177336.21345004413">
		<activity type="home">			<opentime day="wkday" start_time="undefined" end_time="9223372036854775807:00:00" />

		</activity>
	</facility>
	<facility id="f_auto_108" linkId="5221367110955832945_5221367110786858683" x="528096.8892346873" y="174512.94839594836">
		<activity type="work">			<opentime day="wkday" start_time="undefined" end_time="9223372036854775807:00:00" />

		</activity>
	</facility>
	<facility id="f_auto_109" linkId="3988" x="523550.99829932273" y="176134.22533392836">
		<activity type="leisure">			<opentime day="wkday" start_time="undefined" end_time="9223372036854775807:00:00" />

		</activity>
	</facility>
	<facility id="f_auto_11" linkId="1604" x="526859.8222201022" y="178974.38154376837">
		<activity type="work">			<opentime day="wkday" start_time="undefined" end_time="9223372036854775807:00:00" />

		</activity>
	</facility>
	<facility id="f_auto_110" linkId="4502" x="525247.821928627" y="174636.03545884366">
		<activity type="shop">			<opentime day="wkday" start_time="undefined" end_time="9223372036854775807:00:00" />

		</activity>
	</facility>
	<facility id="f_auto_111" linkId="7312" x="526403.8914717847" y="174732.84455091765">
		<activity type="home">			<opentime day="wkday" start_time="undefined" end_time="9223372036854775807:00:00" />

		</activity>
	</facility>
	<facility id="f_auto_112" linkId="7223" x="524305.2069399055" y="174579.3451582473">
		<activity type="shop">			<opentime day="wkday" start_time="undefined" end_time="9223372036854775807:00:00" />

		</activity>
	</facility>
	<facility id="f_auto_113" linkId="7315" x="530253.4313145026" y="175519.6207959856">
		<activity type="leisure">			<opentime day="wkday" start_time="undefined" end_time="9223372036854775807:00:00" />

		</activity>
	</facility>
	<facility id="f_auto_114" linkId="8703" x="527676.6082524228" y="177385.18253208217">
		<activity type="gym">			<opentime day="wkday" start_time="undefined" end_time="9223372036854775807:00:00" />

		</activity>
	</facility>
	<facility id="f_auto_115" linkId="609" x="526916.668188974" y="178645.57550643408">
		<activity type="medical">			<opentime day="wkday" start_time="undefined" end_time="9223372036854775807:00:00" />

		</activity>
	</facility>
	<facility id="f_auto_116" linkId="1580" x="527813.391305279" y="176266.56542639766">
		<activity type="home">			<opentime day="wkday" start_time="undefined" end_time="9223372036854775807:00:00" />

		</activity>
	</facility>
	<facility id="f_auto_117" linkId="4706" x="527327.4083834885" y="179213.92776696957">
		<activity type="pub">			<opentime day="wkday" start_time="undefined" end_time="9223372036854775807:00:00" />

		</activity>
	</facility>
	<facility id="f_auto_118" linkId="2866" x="530607.1807076307" y="176702.81753076552">
		<activity type="home">			<opentime day="wkday" start_time="undefined" end_time="9223372036854775807:00:00" />

		</activity>
	</facility>
	<facility id="f_auto_119" linkId="5221378115961717809_5221378115987208297" x="523874.9855370613" y="177847.7263191296">
		<activity type="pub">			<opentime day="wkday" start_time="undefined" end_time="9223372036854775807:00:00" />

		</activity>
	</facility>
	<facility id="f_auto_12" linkId="5225" x="528103.2214630372" y="176433.39177567867">
		<activity type="medical">			<opentime day="wkday" start_time="undefined" end_time="9223372036854775807:00:00" />

		</activity>
	</facility>
	<facility id="f_auto_120" linkId="5221366956051637281_5221367139569702643" x="527615.9829570547" y="174288.08446863698">
		<activity type="education">			<opentime day="wkday" start_time="undefined" end_time="9223372036854775807:00:00" />

		</activity>
	</facility>
	<facility id="f_auto_121" linkId="5221377818480998145_5221377818493457555" x="524860.2743392407" y="176303.62064289142">
		<activity type="shop">			<opentime day="wkday" start_time="undefined" end_time="9223372036854775807:00:00" />

		</activity>
	</facility>
	<facility id="f_auto_122" linkId="7025" x="530881.8626066034" y="176226.3575178145">
		<activity type="home">			<opentime day="wkday" start_time="undefined" end_time="9223372036854775807:00:00" />

		</activity>
	</facility>
	<facility id="f_auto_123" linkId="2445" x="531020.6877841897" y="178158.55154316328">
		<activity type="medical">			<opentime day="wkday" start_time="undefined" end_time="9223372036854775807:00:00" />

		</activity>
	</facility>
	<facility id="f_auto_124" linkId="1666" x="529570.264854156" y="177274.09136360197">
		<activity type="gym">			<opentime day="wkday" start_time="undefined" end_time="9223372036854775807:00:00" />

		</activity>
	</facility>
	<facility id="f_auto_125" linkId="1601" x="526833.8639353955" y="178886.0825864036">
		<activity type="pub">			<opentime day="wkday" start_time="undefined" end_time="9223372036854775807:00:00" />

		</activity>
	</facility>
	<facility id="f_auto_126" linkId="5058" x="526372.665821372" y="179186.99190817197">
		<activity type="home">			<opentime day="wkday" start_time="undefined" end_time="9223372036854775807:00:00" />

		</activity>
	</facility>
	<facility id="f_auto_127" linkId="4534" x="524092.1012779278" y="177488.31263235887">
		<activity type="pub">			<opentime day="wkday" start_time="undefined" end_time="9223372036854775807:00:00" />

		</activity>
	</facility>
	<facility id="f_auto_128" linkId="8196" x="529403.6544040715" y="176107.60899903596">
		<activity type="home">			<opentime day="wkday" start_time="undefined" end_time="9223372036854775807:00:00" />

		</activity>
	</facility>
	<facility id="f_auto_129" linkId="7479" x="523938.0944871205" y="178420.9628865547">
		<activity type="education">			<opentime day="wkday" start_time="undefined" end_time="9223372036854775807:00:00" />

		</activity>
	</facility>
	<facility id="f_auto_13" linkId="664" x="523088.12642542267" y="177799.89125268447">
		<activity type="home">			<opentime day="wkday" start_time="undefined" end_time="9223372036854775807:00:00" />

		</activity>
	</facility>
	<facility id="f_auto_130" linkId="5221365548786873963_5221365561937271449" x="529598.3608420406" y="175405.05369634746">
		<activity type="pub">			<opentime day="wkday" start_time="undefined" end_time="9223372036854775807:00:00" />

		</activity>
	</facility>
	<facility id="f_auto_131" linkId="7636" x="529183.1632377459" y="178349.9002065459">
		<activity type="shop">			<opentime day="wkday" start_time="undefined" end_time="9223372036854775807:00:00" />

		</activity>
	</facility>
	<facility id="f_auto_132" linkId="5221366728452456373_5221366728745837451" x="525957.797641455" y="178522.74458034264">
		<activity type="gym">			<opentime day="wkday" start_time="undefined" end_time="9223372036854775807:00:00" />

		</activity>
	</facility>
	<facility id="f_auto_133" linkId="9124" x="525870.5541864703" y="174365.86743015557">
		<activity type="home">			<opentime day="wkday" start_time="undefined" end_time="9223372036854775807:00:00" />

		</activity>
	</facility>
	<facility id="f_auto_134" linkId="2355" x="525554.8497564784" y="178593.70157394191">
		<activity type="leisure">			<opentime day="wkday" start_time="undefined" end_time="9223372036854775807:00:00" />

		</activity>
	</facility>
	<facility id="f_auto_135" linkId="5221378127803714953_5221378127797665585" x="524139.0630327332" y="178292.84410142392">
		<activity type="work">			<opentime day="wkday" start_time="undefined" end_time="9223372036854775807:00:00" />

		</activity>
	</facility>
	<facility id="f_auto_136" linkId="9729" x="527681.8544766061" y="174602.23723621972">
		<activity type="home">			<opentime day="wkday" start_time="undefined" end_time="9223372036854775807:00:00" />

		</activity>
	</facility>
	<facility id="f_auto_137" linkId="6037" x="529297.5498592167" y="175052.7871230636">
		<activity type="gym">			<opentime day="wkday" start_time="undefined" end_time="9223372036854775807:00:00" />

		</activity>
	</facility>
	<facility id="f_auto_138" linkId="3681" x="529155.456363863" y="178207.42280534428">
		<activity type="education">			<opentime day="wkday" start_time="undefined" end_time="9223372036854775807:00:00" />

		</activity>
	</facility>
	<facility id="f_auto_139" linkId="2587" x="530614.1514795482" y="175550.77609973395">
		<activity type="shop">			<opentime day="wkday" start_time="undefined" end_time="9223372036854775807:00:00" />

		</activity>
	</facility>
	<facility id="f_auto_14" linkId="5221378008399549081_5221378007204360095" x="524273.96641612786" y="177104.50210162322">
		<activity type="gym">			<opentime day="wkday" start_time="undefined" end_time="9223372036854775807:00:00" />

		</activity>
	</facility>
	<facility id="f_auto_140" linkId="1584" x="524688.2692556418" y="178480.29932616357">
		<activity type="home">			<opentime day="wkday" start_time="undefined" end_time="9223372036854775807:00:00" />

		</activity>
	</facility>
	<facility id="f_auto_141" linkId="4936" x="523675.27382603276" y="177161.833381613">
		<activity type="medical">			<opentime day="wkday" start_time="undefined" end_time="9223372036854775807:00:00" />

		</activity>
	</facility>
	<facility id="f_auto_142" linkId="1593" x="524753.7407746542" y="179313.34816871138">
		<activity type="home">			<opentime day="wkday" start_time="undefined" end_time="9223372036854775807:00:00" />

		</activity>
	</facility>
	<facility id="f_auto_143" linkId="2261" x="525107.6915174274" y="178907.1335515693">
		<activity type="leisure">			<opentime day="wkday" start_time="undefined" end_time="9223372036854775807:00:00" />

		</activity>
	</facility>
	<facility id="f_auto_144" linkId="1421" x="524227.1623807851" y="177305.72387931874">
		<activity type="park">			<opentime day="wkday" start_time="undefined" end_time="9223372036854775807:00:00" />

		</activity>
	</facility>
	<facility id="f_auto_145" linkId="8013" x="523694.73480645526" y="178168.9869730399">
		<activity type="medical">			<opentime day="wkday" start_time="undefined" end_time="9223372036854775807:00:00" />

		</activity>
	</facility>
	<facility id="f_auto_146" linkId="5221377998978816603_5221377356601060163" x="524253.5506491668" y="176443.5644592839">
		<activity type="shop">			<opentime day="wkday" start_time="undefined" end_time="9223372036854775807:00:00" />

		</activity>
	</facility>
	<facility id="f_auto_147" linkId="7370" x="529769.3338313896" y="176436.96235845034">
		<activity type="home">			<opentime day="wkday" start_time="undefined" end_time="9223372036854775807:00:00" />

		</activity>
	</facility>
	<facility id="f_auto_148" linkId="2520" x="527179.3646370014" y="174254.20272257374">
		<activity type="shop">			<opentime day="wkday" start_time="undefined" end_time="9223372036854775807:00:00" />

		</activity>
	</facility>
	<facility id="f_auto_149" linkId="9950" x="528077.5906932775" y="179209.80723493485">
		<activity type="work">			<opentime day="wkday" start_time="undefined" end_time="9223372036854775807:00:00" />

		</activity>
	</facility>
	<facility id="f_auto_15" linkId="383" x="527216.4949200815" y="175730.3853980396">
		<activity type="work">			<opentime day="wkday" start_time="undefined" end_time="9223372036854775807:00:00" />

		</activity>
	</facility>
	<facility id="f_auto_150" linkId="5103" x="529029.691340529" y="174802.22150040825">
		<activity type="pub">			<opentime day="wkday" start_time="undefined" end_time="9223372036854775807:00:00" />

		</activity>
	</facility>
	<facility id="f_auto_151" linkId="5221366952307727429_5221366959452072243" x="527548.2591717646" y="174580.30506741782">
		<activity type="home">			<opentime day="wkday" start_time="undefined" end_time="9223372036854775807:00:00" />

		</activity>
	</facility>
	<facility id="f_auto_152" linkId="7166" x="529173.9593927593" y="178414.34180652097">
		<activity type="work">			<opentime day="wkday" start_time="undefined" end_time="9223372036854775807:00:00" />

		</activity>
	</facility>
	<facility id="f_auto_153" linkId="9342" x="525087.7885732263" y="176586.16371301672">
		<activity type="pub">			<opentime day="wkday" start_time="undefined" end_time="9223372036854775807:00:00" />

		</activity>
	</facility>
	<facility id="f_auto_154" linkId="8888" x="528372.6363911513" y="178461.1968368463">
		<activity type="pub">			<opentime day="wkday" start_time="undefined" end_time="9223372036854775807:00:00" />

		</activity>
	</facility>
	<facility id="f_auto_155" linkId="10538" x="527832.7646076651" y="177926.44125612208">
		<activity type="home">			<opentime day="wkday" start_time="undefined" end_time="9223372036854775807:00:00" />

		</activity>
	</facility>
	<facility id="f_auto_156" linkId="8728" x="529689.8135011332" y="174881.11585175004">
		<activity type="leisure">			<opentime day="wkday" start_time="undefined" end_time="9223372036854775807:00:00" />

		</activity>
	</facility>
	<facility id="f_auto_157" linkId="30" x="524263.4595341119" y="175048.1362940433">
		<activity type="education">			<opentime day="wkday" start_time="undefined" end_time="9223372036854775807:00:00" />

		</activity>
	</facility>
	<facility id="f_auto_158" linkId="6731" x="526710.0318037897" y="177893.99885483744">
		<activity type="home">			<opentime day="wkday" start_time="undefined" end_time="9223372036854775807:00:00" />

		</activity>
	</facility>
	<facility id="f_auto_159" linkId="5221377911153002145_5221377911237600753" x="525662.5630127299" y="178207.762708757">
		<activity type="pub">			<opentime day="wkday" start_time="undefined" end_time="9223372036854775807:00:00" />

		</activity>
	</facility>
	<facility id="f_auto_16" linkId="8651" x="523841.56640648143" y="174843.47975574207">
		<activity type="medical">			<opentime day="wkday" start_time="undefined" end_time="9223372036854775807:00:00" />

		</activity>
	</facility>
	<facility id="f_auto_160" linkId="5346" x="524393.1873324333" y="175296.3422014133">
		<activity type="work">			<opentime day="wkday" start_time="undefined" end_time="9223372036854775807:00:00" />

		</activity>
	</facility>
	<facility id="f_auto_161" linkId="8376" x="529603.7114163458" y="176730.15008826178">
		<activity type="gym">			<opentime day="wkday" start_time="undefined" end_time="9223372036854775807:00:00" />

		</activity>
	</facility>
	<facility id="f_auto_162" linkId="10399" x="528061.6371392817" y="175612.12204132293">
		<activity type="shop">			<opentime day="wkday" start_time="undefined" end_time="9223372036854775807:00:00" />

		</activity>
	</facility>
	<facility id="f_auto_163" linkId="2876" x="530683.0612024333" y="179026.34110271075">
		<activity type="home">			<opentime day="wkday" start_time="undefined" end_time="9223372036854775807:00:00" />

		</activity>
	</facility>
	<facility id="f_auto_164" linkId="3514" x="530211.302738476" y="175525.9897050761">
		<activity type="medical">			<opentime day="wkday" start_time="undefined" end_time="9223372036854775807:00:00" />

		</activity>
	</facility>
	<facility id="f_auto_165" linkId="8610" x="528011.1020984191" y="175531.4896112174">
		<activity type="pub">			<opentime day="wkday" start_time="undefined" end_time="9223372036854775807:00:00" />

		</activity>
	</facility>
	<facility id="f_auto_166" linkId="10104" x="525907.1554044947" y="178800.90619509178">
		<activity type="home">			<opentime day="wkday" start_time="undefined" end_time="9223372036854775807:00:00" />

		</activity>
	</facility>
	<facility id="f_auto_167" linkId="5221366460600230945_5221365581593469489" x="528924.5598946526" y="178753.5346601719">
		<activity type="leisure">			<opentime day="wkday" start_time="undefined" end_time="9223372036854775807:00:00" />

		</activity>
	</facility>
	<facility id="f_auto_168" linkId="5006" x="529959.5676762859" y="177256.6357771156">
		<activity type="medical">			<opentime day="wkday" start_time="undefined" end_time="9223372036854775807:00:00" />

		</activity>
	</facility>
	<facility id="f_auto_169" linkId="8728" x="529694.7877433264" y="174876.43250917422">
		<activity type="gym">			<opentime day="wkday" start_time="undefined" end_time="9223372036854775807:00:00" />

		</activity>
	</facility>
	<facility id="f_auto_17" linkId="10581" x="523688.6009973389" y="178805.38805966903">
		<activity type="pub">			<opentime day="wkday" start_time="undefined" end_time="9223372036854775807:00:00" />

		</activity>
	</facility>
	<facility id="f_auto_170" linkId="10010" x="528550.0803202487" y="175523.58344867488">
		<activity type="home">			<opentime day="wkday" start_time="undefined" end_time="9223372036854775807:00:00" />

		</activity>
	</facility>
	<facility id="f_auto_171" linkId="5221366601669714097_5221366411358458953" x="527269.3058334761" y="178749.49328305808">
		<activity type="shop">			<opentime day="wkday" start_time="undefined" end_time="9223372036854775807:00:00" />

		</activity>
	</facility>
	<facility id="f_auto_172" linkId="3426" x="527567.4168781763" y="175426.4156023221">
		<activity type="home">			<opentime day="wkday" start_time="undefined" end_time="9223372036854775807:00:00" />

		</activity>
	</facility>
	<facility id="f_auto_173" linkId="3525" x="525657.8101156574" y="178603.20559069375">
		<activity type="medical">			<opentime day="wkday" start_time="undefined" end_time="9223372036854775807:00:00" />

		</activity>
	</facility>
	<facility id="f_auto_174" linkId="1624" x="524508.6440297499" y="177998.51568554738">
		<activity type="home">			<opentime day="wkday" start_time="undefined" end_time="9223372036854775807:00:00" />

		</activity>
	</facility>
	<facility id="f_auto_175" linkId="5221366208436072103_5221366208363264957" x="529729.4044834956" y="178694.99102051984">
		<activity type="education">			<opentime day="wkday" start_time="undefined" end_time="9223372036854775807:00:00" />

		</activity>
	</facility>
	<facility id="f_auto_176" linkId="6369" x="527065.6356272602" y="174560.32283282466">
		<activity type="education">			<opentime day="wkday" start_time="undefined" end_time="9223372036854775807:00:00" />

		</activity>
	</facility>
	<facility id="f_auto_177" linkId="5221366784559268067_5221366784053269627" x="527491.1408459239" y="177853.57373120217">
		<activity type="home">			<opentime day="wkday" start_time="undefined" end_time="9223372036854775807:00:00" />

		</activity>
	</facility>
	<facility id="f_auto_178" linkId="7631" x="523966.50950332097" y="174973.8973459462">
		<activity type="medical">			<opentime day="wkday" start_time="undefined" end_time="9223372036854775807:00:00" />

		</activity>
	</facility>
	<facility id="f_auto_179" linkId="5221377881290372807_5221377878429608629" x="525266.9807447835" y="177244.39189027387">
		<activity type="pub">			<opentime day="wkday" start_time="undefined" end_time="9223372036854775807:00:00" />

		</activity>
	</facility>
	<facility id="f_auto_18" linkId="7272" x="526019.984159989" y="178825.93630426886">
		<activity type="home">			<opentime day="wkday" start_time="undefined" end_time="9223372036854775807:00:00" />

		</activity>
	</facility>
	<facility id="f_auto_180" linkId="5221366861622359389_5221377924509752055" x="525903.962884654" y="177230.970840388">
		<activity type="home">			<opentime day="wkday" start_time="undefined" end_time="9223372036854775807:00:00" />

		</activity>
	</facility>
	<facility id="f_auto_181" linkId="7523" x="530200.5628018528" y="175147.51236691605">
		<activity type="park">			<opentime day="wkday" start_time="undefined" end_time="9223372036854775807:00:00" />

		</activity>
	</facility>
	<facility id="f_auto_182" linkId="5824" x="527248.1496404099" y="178493.81810560293">
		<activity type="medical">			<opentime day="wkday" start_time="undefined" end_time="9223372036854775807:00:00" />

		</activity>
	</facility>
	<facility id="f_auto_183" linkId="6237" x="525178.5389301296" y="177101.66287372328">
		<activity type="home">			<opentime day="wkday" start_time="undefined" end_time="9223372036854775807:00:00" />

		</activity>
	</facility>
	<facility id="f_auto_184" linkId="7433" x="525635.5937381337" y="177384.66499421198">
		<activity type="park">			<opentime day="wkday" start_time="undefined" end_time="9223372036854775807:00:00" />

		</activity>
	</facility>
	<facility id="f_auto_185" linkId="5221366451864463921_5221366448193457023" x="528983.3707064575" y="178614.800833409">
		<activity type="home">			<opentime day="wkday" start_time="undefined" end_time="9223372036854775807:00:00" />

		</activity>
	</facility>
	<facility id="f_auto_186" linkId="4667" x="527292.6627807437" y="174424.73259851005">
		<activity type="gym">			<opentime day="wkday" start_time="undefined" end_time="9223372036854775807:00:00" />

		</activity>
	</facility>
	<facility id="f_auto_187" linkId="7731" x="530456.1684301003" y="177553.1489378098">
		<activity type="park">			<opentime day="wkday" start_time="undefined" end_time="9223372036854775807:00:00" />

		</activity>
	</facility>
	<facility id="f_auto_188" linkId="10" x="527385.0520679782" y="178698.36054039252">
		<activity type="shop">			<opentime day="wkday" start_time="undefined" end_time="9223372036854775807:00:00" />

		</activity>
	</facility>
	<facility id="f_auto_189" linkId="5221365552243874069_5221365551957699299" x="529880.0650453812" y="175249.95356169943">
		<activity type="pub">			<opentime day="wkday" start_time="undefined" end_time="9223372036854775807:00:00" />

		</activity>
	</facility>
	<facility id="f_auto_19" linkId="6846" x="529625.9402654996" y="178286.3528137187">
		<activity type="shop">			<opentime day="wkday" start_time="undefined" end_time="9223372036854775807:00:00" />

		</activity>
	</facility>
	<facility id="f_auto_190" linkId="2110" x="525469.3795458452" y="178954.25504688555">
		<activity type="home">			<opentime day="wkday" start_time="undefined" end_time="9223372036854775807:00:00" />

		</activity>
	</facility>
	<facility id="f_auto_191" linkId="5221377946731849257_5221377946568988459" x="524646.4174051998" y="178187.98860680705">
		<activity type="education">			<opentime day="wkday" start_time="undefined" end_time="9223372036854775807:00:00" />

		</activity>
	</facility>
	<facility id="f_auto_192" linkId="10447" x="527135.1618944714" y="176083.53679910532">
		<activity type="work">			<opentime day="wkday" start_time="undefined" end_time="9223372036854775807:00:00" />

		</activity>
	</facility>
	<facility id="f_auto_193" linkId="7715" x="523424.84195371554" y="178182.22949668643">
		<activity type="home">			<opentime day="wkday" start_time="undefined" end_time="9223372036854775807:00:00" />

		</activity>
	</facility>
	<facility id="f_auto_194" linkId="2322" x="524944.045197607" y="179533.144495657">
		<activity type="pub">			<opentime day="wkday" start_time="undefined" end_time="9223372036854775807:00:00" />

		</activity>
	</facility>
	<facility id="f_auto_195" linkId="10881" x="523326.51058079646" y="175361.28586354613">
		<activity type="education">			<opentime day="wkday" start_time="undefined" end_time="9223372036854775807:00:00" />

		</activity>
	</facility>
	<facility id="f_auto_196" linkId="5221366408573685353_5221366408970014175" x="527837.8425283394" y="178613.4264920294">
		<activity type="shop">			<opentime day="wkday" start_time="undefined" end_time="9223372036854775807:00:00" />

		</activity>
	</facility>
	<facility id="f_auto_197" linkId="6829" x="528489.1889550345" y="176471.27913068756">
		<activity type="medical">			<opentime day="wkday" start_time="undefined" end_time="9223372036854775807:00:00" />

		</activity>
	</facility>
	<facility id="f_auto_198" linkId="9385" x="525764.002771291" y="174135.38462600182">
		<activity type="home">			<opentime day="wkday" start_time="undefined" end_time="9223372036854775807:00:00" />

		</activity>
	</facility>
	<facility id="f_auto_199" linkId="5981" x="524151.6205989938" y="175303.76678257238">
		<activity type="medical">			<opentime day="wkday" start_time="undefined" end_time="9223372036854775807:00:00" />

		</activity>
	</facility>
	<facility id="f_auto_2" linkId="4528" x="529387.0122476079" y="176668.62088655806">
		<activity type="education">			<opentime day="wkday" start_time="undefined" end_time="9223372036854775807:00:00" />

		</activity>
	</facility>
	<facility id="f_auto_20" linkId="5221366695539502243_5221378373437238523" x="525649.8111940596" y="179758.43360032781">
		<activity type="leisure">			<opentime day="wkday" start_time="undefined" end_time="9223372036854775807:00:00" />

		</activity>
	</facility>
	<facility id="f_auto_200" linkId="5868" x="529835.7761648201" y="175025.45947582184">
		<activity type="leisure">			<opentime day="wkday" start_time="undefined" end_time="9223372036854775807:00:00" />

		</activity>
	</facility>
	<facility id="f_auto_201" linkId="8189" x="525499.6351688043" y="177931.7910391301">
		<activity type="gym">			<opentime day="wkday" start_time="undefined" end_time="9223372036854775807:00:00" />

		</activity>
	</facility>
	<facility id="f_auto_202" linkId="9350" x="530627.8432635306" y="175425.41848348148">
		<activity type="home">			<opentime day="wkday" start_time="undefined" end_time="9223372036854775807:00:00" />

		</activity>
	</facility>
	<facility id="f_auto_203" linkId="7146" x="526507.3684862795" y="175299.1309285616">
		<activity type="work">			<opentime day="wkday" start_time="undefined" end_time="9223372036854775807:00:00" />

		</activity>
	</facility>
	<facility id="f_auto_204" linkId="6037" x="529073.9430284349" y="174638.97975755116">
		<activity type="home">			<opentime day="wkday" start_time="undefined" end_time="9223372036854775807:00:00" />

		</activity>
	</facility>
	<facility id="f_auto_205" linkId="7498" x="524744.1295696397" y="177279.27929389448">
		<activity type="gym">			<opentime day="wkday" start_time="undefined" end_time="9223372036854775807:00:00" />

		</activity>
	</facility>
	<facility id="f_auto_206" linkId="7191" x="528276.159103122" y="178555.88420547795">
		<activity type="education">			<opentime day="wkday" start_time="undefined" end_time="9223372036854775807:00:00" />

		</activity>
	</facility>
	<facility id="f_auto_207" linkId="3525" x="525807.495901569" y="178636.51306152612">
		<activity type="medical">			<opentime day="wkday" start_time="undefined" end_time="9223372036854775807:00:00" />

		</activity>
	</facility>
	<facility id="f_auto_208" linkId="9275" x="526845.0866681851" y="175717.26946023077">
		<activity type="shop">			<opentime day="wkday" start_time="undefined" end_time="9223372036854775807:00:00" />

		</activity>
	</facility>
	<facility id="f_auto_209" linkId="7291" x="525168.2846232431" y="178386.17826919485">
		<activity type="pub">			<opentime day="wkday" start_time="undefined" end_time="9223372036854775807:00:00" />

		</activity>
	</facility>
	<facility id="f_auto_21" linkId="9928" x="528031.1991045449" y="174505.25653364256">
		<activity type="medical">			<opentime day="wkday" start_time="undefined" end_time="9223372036854775807:00:00" />

		</activity>
	</facility>
	<facility id="f_auto_210" linkId="5221367112705585789_5221367139469493421" x="527847.5616427864" y="174479.03484921617">
		<activity type="home">			<opentime day="wkday" start_time="undefined" end_time="9223372036854775807:00:00" />

		</activity>
	</facility>
	<facility id="f_auto_211" linkId="4209" x="526421.0010810235" y="178465.32003612808">
		<activity type="leisure">			<opentime day="wkday" start_time="undefined" end_time="9223372036854775807:00:00" />

		</activity>
	</facility>