<?xml version="1.0" encoding="UTF-8"?><!DOCTYPE population SYSTEM "http://matsim.org/files/dtd/population_v6.dtd"><population>
  <!--Created 2021-10-07 12:31:26.689665-->
  <person id="agent_0">
    <attributes>
      <attribute class="java.lang.String" name="subpopulation">medium income</attribute>
      <attribute class="java.lang.String" name="gender">female</attribute>
      <attribute class="java.lang.String" name="age">40 to 49</attribute>
      <attribute class="java.lang.String" name="household_zone">Wandsworth 001B</attribute>
      <attribute class="java.lang.String" name="household_LSOA">E02000923</attribute>
      <attribute class="java.lang.String" name="household_LAD">Wandsworth</attribute>
      <attribute class="java.lang.Boolean" name="hasLicence">true</attribute>
      <attribute class="java.lang.Boolean" name="hasBike">true</attribute>
      <attribute class="java.lang.Boolean" name="carAvail">true</attribute>
      <attribute class="java.lang.String" name="hid">hh_0</attribute>

    </attributes>
    <plan selected="yes">
      <activity type="home" x="528634.2579046559" y="176896.66392752415" end_time="07:58:00"/>
      <leg mode="car" trav_time="00:25:00"/>
      <activity type="leisure" x="526119.234602612" y="179603.58648628547" end_time="09:23:00"/>
      <leg mode="walk" trav_time="00:17:00"/>
      <activity type="education" x="529387.0122476079" y="176668.62088655806" end_time="10:40:00"/>
      <leg mode="walk" trav_time="00:41:00"/>
      <activity type="gym" x="528868.8288911137" y="178615.01982798273" end_time="12:21:00"/>
      <leg mode="walk" trav_time="01:05:00"/>
      <activity type="medical" x="526206.7524917194" y="179283.19311998723" end_time="14:26:00"/>
      <leg mode="rail" trav_time="00:34:00"/>
      <activity type="home" x="528634.2579046559" y="176896.66392752415"/>
    </plan>
  </person>
  <person id="agent_1">
    <attributes>
      <attribute class="java.lang.String" name="subpopulation">medium income</attribute>
      <attribute class="java.lang.String" name="gender">female</attribute>
      <attribute class="java.lang.String" name="age">85  and over</attribute>
      <attribute class="java.lang.String" name="household_zone">Westminster 021B</attribute>
      <attribute class="java.lang.String" name="household_LSOA">E02000980</attribute>
      <attribute class="java.lang.String" name="household_LAD">Westminster</attribute>
      <attribute class="java.lang.Boolean" name="hasLicence">true</attribute>
      <attribute class="java.lang.Boolean" name="hasBike">true</attribute>
      <attribute class="java.lang.Boolean" name="carAvail">true</attribute>
      <attribute class="java.lang.String" name="hid">hh_1</attribute>
    </attributes>
    <plan selected="yes">
      <activity type="home" x="529822.8059961997" y="178905.68114322642" end_time="07:54:00"/>
      <leg mode="ferry" trav_time="01:06:00"/>
      <activity type="park" x="525198.6903442258" y="179459.64465879783" end_time="10:00:00"/>
      <leg mode="car" trav_time="00:39:00"/>
      <activity type="work" x="527139.1758065606" y="176879.31997837676" end_time="14:39:00"/>
      <leg mode="ferry" trav_time="00:53:00"/>
      <activity type="pub" x="530643.5906864097" y="176913.50990595238" end_time="16:32:00"/>
      <leg mode="subway" trav_time="01:14:00"/>
      <activity type="medical" x="529517.0822535537" y="175615.5670547735" end_time="18:46:00"/>
      <leg mode="walk" trav_time="00:40:00"/>
      <activity type="home" x="529822.8059961997" y="178905.68114322642"/>
    </plan>
  </person>
  <person id="agent_2">
    <attributes>
      <attribute class="java.lang.String" name="subpopulation">high income</attribute>
      <attribute class="java.lang.String" name="gender">male</attribute>
      <attribute class="java.lang.String" name="age">21 to 25</attribute>
      <attribute class="java.lang.String" name="household_zone">Wandsworth 004C</attribute>
      <attribute class="java.lang.String" name="household_LSOA">E02000926</attribute>
      <attribute class="java.lang.String" name="household_LAD">Wandsworth</attribute>
      <attribute class="java.lang.Boolean" name="hasLicence">true</attribute>
      <attribute class="java.lang.Boolean" name="hasBike">true</attribute>
      <attribute class="java.lang.Boolean" name="carAvail">true</attribute>
      <attribute class="java.lang.String" name="hid">hh_2</attribute>
    </attributes>
    <plan selected="yes">
      <activity type="home" x="527078.6194482464" y="176482.43567397105" end_time="07:47:00"/>
      <leg mode="bike" trav_time="01:16:00"/>
      <activity type="work" x="526859.8222201022" y="178974.38154376837" end_time="13:03:00"/>
      <leg mode="rail" trav_time="01:04:00"/>
      <activity type="medical" x="528103.2214630372" y="176433.39177567867" end_time="16:07:00"/>
      <leg mode="car" trav_time="01:29:00"/>
      <activity type="home" x="527078.6194482464" y="176482.43567397105"/>
    </plan>
  </person>
  <person id="agent_3">
    <attributes>
      <attribute class="java.lang.String" name="subpopulation">medium income</attribute>
      <attribute class="java.lang.String" name="gender">female</attribute>
      <attribute class="java.lang.String" name="age">30 to 39</attribute>
      <attribute class="java.lang.String" name="household_zone">Richmond upon Thames 001E</attribute>
      <attribute class="java.lang.String" name="household_LSOA">E02000784</attribute>
      <attribute class="java.lang.String" name="household_LAD">Richmond upon Thames</attribute>
      <attribute class="java.lang.Boolean" name="hasLicence">true</attribute>
      <attribute class="java.lang.Boolean" name="hasBike">true</attribute>
      <attribute class="java.lang.Boolean" name="carAvail">true</attribute>
      <attribute class="java.lang.String" name="hid">hh_3</attribute>
    </attributes>
    <plan selected="yes">
      <activity type="home" x="523088.12642542267" y="177799.89125268447" end_time="07:22:00"/>
      <leg mode="subway" trav_time="01:09:00"/>
      <activity type="gym" x="524273.96641612786" y="177104.50210162322" end_time="10:31:00"/>
      <leg mode="rail" trav_time="00:54:00"/>
      <activity type="work" x="527216.4949200815" y="175730.3853980396" end_time="15:25:00"/>
      <leg mode="ferry" trav_time="00:24:00"/>
      <activity type="medical" x="523841.56640648143" y="174843.47975574207" end_time="17:49:00"/>
      <leg mode="car" trav_time="00:18:00"/>
      <activity type="pub" x="523688.6009973389" y="178805.38805966903" end_time="20:07:00"/>
      <leg mode="bus" trav_time="01:26:00"/>
      <activity type="home" x="523088.12642542267" y="177799.89125268447"/>
    </plan>
  </person>
  <person id="agent_4">
    <attributes>
      <attribute class="java.lang.String" name="subpopulation">low income</attribute>
      <attribute class="java.lang.String" name="gender">male</attribute>
      <attribute class="java.lang.String" name="age">16 to 20</attribute>
      <attribute class="java.lang.String" name="household_zone">Kensington and Chelsea 016C</attribute>
      <attribute class="java.lang.String" name="household_LSOA">E02000592</attribute>
      <attribute class="java.lang.String" name="household_LAD">Kensington and Chelsea</attribute>
      <attribute class="java.lang.Boolean" name="hasLicence">true</attribute>
      <attribute class="java.lang.Boolean" name="hasBike">true</attribute>
      <attribute class="java.lang.Boolean" name="carAvail">true</attribute>
      <attribute class="java.lang.String" name="hid">hh_4</attribute>
    </attributes>
    <plan selected="yes">
      <activity type="home" x="526019.984159989" y="178825.93630426886" end_time="08:28:00"/>
      <leg mode="ferry" trav_time="00:52:00"/>
      <activity type="shop" x="529625.9402654996" y="178286.3528137187" end_time="10:20:00"/>
      <leg mode="bike" trav_time="00:37:00"/>
      <activity type="leisure" x="525649.8111940596" y="179758.43360032781" end_time="11:57:00"/>
      <leg mode="walk" trav_time="00:51:00"/>
      <activity type="medical" x="528031.1991045449" y="174505.25653364256" end_time="13:48:00"/>
      <leg mode="walk" trav_time="00:53:00"/>
      <activity type="home" x="526019.984159989" y="178825.93630426886"/>
    </plan>
  </person>
  <person id="agent_5">
    <attributes>
      <attribute class="java.lang.String" name="subpopulation">low income</attribute>
      <attribute class="java.lang.String" name="gender">male</attribute>
      <attribute class="java.lang.String" name="age">40 to 49</attribute>
      <attribute class="java.lang.String" name="household_zone">Wandsworth 012E</attribute>
      <attribute class="java.lang.String" name="household_LSOA">E02000934</attribute>
      <attribute class="java.lang.String" name="household_LAD">Wandsworth</attribute>
      <attribute class="java.lang.Boolean" name="hasLicence">true</attribute>
      <attribute class="java.lang.Boolean" name="hasBike">true</attribute>
      <attribute class="java.lang.Boolean" name="carAvail">true</attribute>
      <attribute class="java.lang.String" name="hid">hh_5</attribute>
    </attributes>
    <plan selected="yes">
      <activity type="home" x="527291.5458958707" y="175195.84829763375" end_time="06:37:00"/>
      <leg mode="car" trav_time="01:24:00"/>
      <activity type="pub" x="524424.9633801503" y="175859.96616895412" end_time="09:01:00"/>
      <leg mode="walk" trav_time="00:18:00"/>
      <activity type="home" x="527291.5458958707" y="175195.84829763375"/>
    </plan>
  </person>
  <person id="agent_6">
    <attributes>
      <attribute class="java.lang.String" name="subpopulation">high income</attribute>
      <attribute class="java.lang.String" name="gender">male</attribute>
      <attribute class="java.lang.String" name="age">65 to 69</attribute>
      <attribute class="java.lang.String" name="household_zone">Westminster 020C</attribute>
      <attribute class="java.lang.String" name="household_LSOA">E02000979</attribute>
      <attribute class="java.lang.String" name="household_LAD">Westminster</attribute>
      <attribute class="java.lang.Boolean" name="hasLicence">true</attribute>
      <attribute class="java.lang.Boolean" name="hasBike">true</attribute>
      <attribute class="java.lang.Boolean" name="carAvail">true</attribute>
      <attribute class="java.lang.String" name="hid">hh_6</attribute>
    </attributes>
    <plan selected="yes">
      <activity type="home" x="530025.7262240043" y="179234.94124139557" end_time="08:29:00"/>
      <leg mode="bus" trav_time="00:56:00"/>
      <activity type="shop" x="527982.7320936626" y="178876.63968227486" end_time="10:25:00"/>
      <leg mode="bus" trav_time="00:32:00"/>
      <activity type="home" x="530025.7262240043" y="179234.94124139557"/>
    </plan>
  </person>
  <person id="agent_7">
    <attributes>
      <attribute class="java.lang.String" name="subpopulation">low income</attribute>
      <attribute class="java.lang.String" name="gender">female</attribute>
      <attribute class="java.lang.String" name="age">30 to 39</attribute>
      <attribute class="java.lang.String" name="household_zone">Westminster 022A</attribute>
      <attribute class="java.lang.String" name="household_LSOA">E02000981</attribute>
      <attribute class="java.lang.String" name="household_LAD">Westminster</attribute>
      <attribute class="java.lang.Boolean" name="hasLicence">true</attribute>
      <attribute class="java.lang.Boolean" name="hasBike">true</attribute>
      <attribute class="java.lang.Boolean" name="carAvail">true</attribute>
      <attribute class="java.lang.String" name="hid">hh_7</attribute>
    </attributes>
    <plan selected="yes">
      <activity type="home" x="529405.9537007655" y="178376.54881272485" end_time="07:15:00"/>
      <leg mode="bus" trav_time="00:13:00"/>
      <activity type="work" x="523089.2347865304" y="177800.78676757473" end_time="10:28:00"/>
      <leg mode="bus" trav_time="00:21:00"/>
      <activity type="gym" x="525790.9265455898" y="174133.67947501724" end_time="12:49:00"/>
      <leg mode="car" trav_time="00:10:00"/>
      <activity type="medical" x="525783.2868763903" y="174151.62304792437" end_time="14:59:00"/>
      <leg mode="ferry" trav_time="00:43:00"/>
      <activity type="gym" x="524197.4904173438" y="176783.09429189807" end_time="17:42:00"/>
      <leg mode="car" trav_time="01:07:00"/>
      <activity type="home" x="529405.9537007655" y="178376.54881272485"/>
    </plan>
  </person>
  <person id="agent_8">
    <attributes>
      <attribute class="java.lang.String" name="subpopulation">medium income</attribute>
      <attribute class="java.lang.String" name="gender">female</attribute>
      <attribute class="java.lang.String" name="age">16 to 20</attribute>
      <attribute class="java.lang.String" name="household_zone">Wandsworth 001B</attribute>
      <attribute class="java.lang.String" name="household_LSOA">E02000923</attribute>
      <attribute class="java.lang.String" name="household_LAD">Wandsworth</attribute>
      <attribute class="java.lang.Boolean" name="hasLicence">true</attribute>
      <attribute class="java.lang.Boolean" name="hasBike">true</attribute>
      <attribute class="java.lang.Boolean" name="carAvail">true</attribute>
      <attribute class="java.lang.String" name="hid">hh_8</attribute>
    </attributes>
    <plan selected="yes">
      <activity type="home" x="528485.2913311874" y="176834.06037785506" end_time="06:04:00"/>
      <leg mode="bike" trav_time="01:23:00"/>
      <activity type="gym" x="524697.0098251663" y="177018.98769063555" end_time="08:27:00"/>
      <leg mode="ferry" trav_time="01:21:00"/>
      <activity type="shop" x="527041.9208491099" y="177532.50458977112" end_time="10:48:00"/>
      <leg mode="subway" trav_time="00:28:00"/>
      <activity type="home" x="528485.2913311874" y="176834.06037785506"/>
    </plan>
  </person>
  <person id="agent_9">
    <attributes>
      <attribute class="java.lang.String" name="subpopulation">low income</attribute>
      <attribute class="java.lang.String" name="gender">female</attribute>
      <attribute class="java.lang.String" name="age">40 to 49</attribute>
      <attribute class="java.lang.String" name="household_zone">Westminster 021A</attribute>
      <attribute class="java.lang.String" name="household_LSOA">E02000980</attribute>
      <attribute class="java.lang.String" name="household_LAD">Westminster</attribute>
      <attribute class="java.lang.Boolean" name="hasLicence">true</attribute>
      <attribute class="java.lang.Boolean" name="hasBike">true</attribute>
      <attribute class="java.lang.Boolean" name="carAvail">true</attribute>
      <attribute class="java.lang.String" name="hid">hh_9</attribute>
    </attributes>
    <plan selected="yes">
      <activity type="home" x="529523.4816578359" y="178510.10492312044" end_time="06:39:00"/>
      <leg mode="subway" trav_time="00:50:00"/>
      <activity type="leisure" x="524280.7033136657" y="175534.47275991368" end_time="09:29:00"/>
      <leg mode="rail" trav_time="00:57:00"/>
      <activity type="park" x="527795.2952070755" y="179627.04877738867" end_time="12:26:00"/>
      <leg mode="car" trav_time="00:50:00"/>
      <activity type="medical" x="527344.7384609244" y="176331.5938001612" end_time="15:16:00"/>
      <leg mode="ferry" trav_time="00:58:00"/>
      <activity type="home" x="529523.4816578359" y="178510.10492312044"/>
    </plan>
  </person>
  <person id="agent_10">
    <attributes>
      <attribute class="java.lang.String" name="subpopulation">medium income</attribute>
      <attribute class="java.lang.String" name="gender">male</attribute>
      <attribute class="java.lang.String" name="age">0 to 4</attribute>
      <attribute class="java.lang.String" name="household_zone">Kensington and Chelsea 016B</attribute>
      <attribute class="java.lang.String" name="household_LSOA">E02000592</attribute>
      <attribute class="java.lang.String" name="household_LAD">Kensington and Chelsea</attribute>
      <attribute class="java.lang.Boolean" name="hasLicence">true</attribute>
      <attribute class="java.lang.Boolean" name="hasBike">true</attribute>
      <attribute class="java.lang.Boolean" name="carAvail">true</attribute>
      <attribute class="java.lang.String" name="hid">hh_10</attribute>
    </attributes>
    <plan selected="yes">
      <activity type="home" x="526813.4518432312" y="178645.72321988898" end_time="06:50:00"/>
      <leg mode="ferry" trav_time="00:45:00"/>
      <activity type="medical" x="525825.2437715309" y="175712.21927087058" end_time="09:35:00"/>
      <leg mode="walk" trav_time="00:27:00"/>
      <activity type="park" x="529425.5441159558" y="176214.89742754702" end_time="12:02:00"/>
      <leg mode="rail" trav_time="01:10:00"/>
      <activity type="home" x="526813.4518432312" y="178645.72321988898"/>
    </plan>
  </person>
  <person id="agent_11">
    <attributes>
      <attribute class="java.lang.String" name="subpopulation">low income</attribute>
      <attribute class="java.lang.String" name="gender">female</attribute>
      <attribute class="java.lang.String" name="age">5 to 10</attribute>
      <attribute class="java.lang.String" name="household_zone">Wandsworth 001B</attribute>
      <attribute class="java.lang.String" name="household_LSOA">E02000923</attribute>
      <attribute class="java.lang.String" name="household_LAD">Wandsworth</attribute>
      <attribute class="java.lang.Boolean" name="hasLicence">true</attribute>
      <attribute class="java.lang.Boolean" name="hasBike">true</attribute>
      <attribute class="java.lang.Boolean" name="carAvail">true</attribute>
      <attribute class="java.lang.String" name="hid">hh_11</attribute>
    </attributes>
    <plan selected="yes">
      <activity type="home" x="528649.0218677785" y="176950.5326243471" end_time="06:34:00"/>
      <leg mode="ferry" trav_time="00:35:00"/>
      <activity type="pub" x="523927.82388273114" y="176497.08423588684" end_time="08:09:00"/>
      <leg mode="ferry" trav_time="01:24:00"/>
      <activity type="park" x="524503.396631274" y="178536.88602010024" end_time="10:33:00"/>
      <leg mode="car" trav_time="01:11:00"/>
      <activity type="medical" x="526329.6905533875" y="178248.67930342988" end_time="12:44:00"/>
      <leg mode="bike" trav_time="00:51:00"/>
      <activity type="home" x="528649.0218677785" y="176950.5326243471"/>
    </plan>
  </person>
  <person id="agent_12">
    <attributes>
      <attribute class="java.lang.String" name="subpopulation">medium income</attribute>
      <attribute class="java.lang.String" name="gender">female</attribute>
      <attribute class="java.lang.String" name="age">65 to 69</attribute>
      <attribute class="java.lang.String" name="household_zone">Westminster 020E</attribute>
      <attribute class="java.lang.String" name="household_LSOA">E02000979</attribute>
      <attribute class="java.lang.String" name="household_LAD">Westminster</attribute>
      <attribute class="java.lang.Boolean" name="hasLicence">true</attribute>
      <attribute class="java.lang.Boolean" name="hasBike">true</attribute>
      <attribute class="java.lang.Boolean" name="carAvail">true</attribute>
      <attribute class="java.lang.String" name="hid">hh_12</attribute>
    </attributes>
    <plan selected="yes">
      <activity type="home" x="529389.3374811182" y="179134.0153396812" end_time="07:24:00"/>
      <leg mode="bus" trav_time="00:42:00"/>
      <activity type="work" x="527471.1750436361" y="177223.67890459977" end_time="12:06:00"/>
      <leg mode="car" trav_time="00:47:00"/>
      <activity type="home" x="529389.3374811182" y="179134.0153396812"/>
    </plan>
  </person>
  <person id="agent_13">
    <attributes>
      <attribute class="java.lang.String" name="subpopulation">low income</attribute>
      <attribute class="java.lang.String" name="gender">female</attribute>
      <attribute class="java.lang.String" name="age">5 to 10</attribute>
      <attribute class="java.lang.String" name="household_zone">Hammersmith and Fulham 016B</attribute>
      <attribute class="java.lang.String" name="household_LSOA">E02000387</attribute>
      <attribute class="java.lang.String" name="household_LAD">Hammersmith and Fulham</attribute>
      <attribute class="java.lang.Boolean" name="hasLicence">true</attribute>
      <attribute class="java.lang.Boolean" name="hasBike">true</attribute>
      <attribute class="java.lang.Boolean" name="carAvail">true</attribute>
      <attribute class="java.lang.String" name="hid">hh_13</attribute>
    </attributes>
    <plan selected="yes">
      <activity type="home" x="524026.44772585906" y="177601.3368314702" end_time="07:29:00"/>
      <leg mode="bike" trav_time="01:15:00"/>
      <activity type="pub" x="526387.5277948015" y="174523.6867599245" end_time="10:44:00"/>
      <leg mode="rail" trav_time="00:16:00"/>
      <activity type="education" x="529141.3071773145" y="178644.4185828748" end_time="13:00:00"/>
      <leg mode="bus" trav_time="00:39:00"/>
      <activity type="shop" x="523075.7233929924" y="177127.6028621797" end_time="15:39:00"/>
      <leg mode="ferry" trav_time="01:17:00"/>
      <activity type="gym" x="522801.1537250672" y="176043.54219092065" end_time="18:56:00"/>
      <leg mode="rail" trav_time="00:31:00"/>
      <activity type="home" x="524026.44772585906" y="177601.3368314702"/>
    </plan>
  </person>
  <person id="agent_14">
    <attributes>
      <attribute class="java.lang.String" name="subpopulation">high income</attribute>
      <attribute class="java.lang.String" name="gender">male</attribute>
      <attribute class="java.lang.String" name="age">85  and over</attribute>
      <attribute class="java.lang.String" name="household_zone">Hammersmith and Fulham 013C</attribute>
      <attribute class="java.lang.String" name="household_LSOA">E02000384</attribute>
      <attribute class="java.lang.String" name="household_LAD">Hammersmith and Fulham</attribute>
      <attribute class="java.lang.Boolean" name="hasLicence">true</attribute>
      <attribute class="java.lang.Boolean" name="hasBike">true</attribute>
      <attribute class="java.lang.Boolean" name="carAvail">true</attribute>
      <attribute class="java.lang.String" name="hid">hh_14</attribute>
    </attributes>
    <plan selected="yes">
      <activity type="home" x="523614.3360418461" y="178703.3562868719" end_time="07:07:00"/>
      <leg mode="subway" trav_time="00:36:00"/>
      <activity type="shop" x="524186.03931559663" y="179078.63190364995" end_time="09:43:00"/>
      <leg mode="rail" trav_time="00:22:00"/>
      <activity type="work" x="530424.6050037252" y="175449.83446712856" end_time="14:05:00"/>
      <leg mode="bus" trav_time="00:48:00"/>
      <activity type="home" x="523614.3360418461" y="178703.3562868719"/>
    </plan>
  </person>
  <person id="agent_15">
    <attributes>
      <attribute class="java.lang.String" name="subpopulation">high income</attribute>
      <attribute class="java.lang.String" name="gender">female</attribute>
      <attribute class="java.lang.String" name="age">75 to 79</attribute>
      <attribute class="java.lang.String" name="household_zone">Hammersmith and Fulham 010D</attribute>
      <attribute class="java.lang.String" name="household_LSOA">E02000381</attribute>
      <attribute class="java.lang.String" name="household_LAD">Hammersmith and Fulham</attribute>
      <attribute class="java.lang.Boolean" name="hasLicence">true</attribute>
      <attribute class="java.lang.Boolean" name="hasBike">true</attribute>
      <attribute class="java.lang.Boolean" name="carAvail">true</attribute>
      <attribute class="java.lang.String" name="hid">hh_15</attribute>
    </attributes>
    <plan selected="yes">
      <activity type="home" x="523924.9274532371" y="179001.73020070806" end_time="07:03:00"/>
      <leg mode="ferry" trav_time="01:16:00"/>
      <activity type="leisure" x="526596.3937128813" y="178594.2358209834" end_time="09:19:00"/>
      <leg mode="subway" trav_time="00:14:00"/>
      <activity type="shop" x="526241.9434977496" y="177793.5255081891" end_time="10:33:00"/>
      <leg mode="bus" trav_time="00:54:00"/>
      <activity type="home" x="523924.9274532371" y="179001.73020070806"/>
    </plan>
  </person>
  <person id="agent_16">
    <attributes>
      <attribute class="java.lang.String" name="subpopulation">high income</attribute>
      <attribute class="java.lang.String" name="gender">male</attribute>
      <attribute class="java.lang.String" name="age">80 to 84</attribute>
      <attribute class="java.lang.String" name="household_zone">Kensington and Chelsea 013C</attribute>
      <attribute class="java.lang.String" name="household_LSOA">E02000589</attribute>
      <attribute class="java.lang.String" name="household_LAD">Kensington and Chelsea</attribute>
      <attribute class="java.lang.Boolean" name="hasLicence">true</attribute>
      <attribute class="java.lang.Boolean" name="hasBike">true</attribute>
      <attribute class="java.lang.Boolean" name="carAvail">true</attribute>
      <attribute class="java.lang.String" name="hid">hh_16</attribute>
    </attributes>
    <plan selected="yes">
      <activity type="home" x="525833.7741580525" y="178773.8747479139" end_time="07:13:00"/>
      <leg mode="ferry" trav_time="00:51:00"/>
      <activity type="pub" x="525785.7267503997" y="174214.87275368423" end_time="09:04:00"/>
      <leg mode="bike" trav_time="00:18:00"/>
      <activity type="education" x="529271.3225440884" y="178103.21489835918" end_time="10:22:00"/>
      <leg mode="bus" trav_time="00:26:00"/>
      <activity type="gym" x="527449.0377700026" y="174907.7934215893" end_time="11:48:00"/>
      <leg mode="bus" trav_time="00:10:00"/>
      <activity type="home" x="525833.7741580525" y="178773.8747479139"/>
    </plan>
  </person>
  <person id="agent_17">
    <attributes>
      <attribute class="java.lang.String" name="subpopulation">medium income</attribute>
      <attribute class="java.lang.String" name="gender">female</attribute>
      <attribute class="java.lang.String" name="age">80 to 84</attribute>
      <attribute class="java.lang.String" name="household_zone">Kensington and Chelsea 019B</attribute>
      <attribute class="java.lang.String" name="household_LSOA">E02000595</attribute>
      <attribute class="java.lang.String" name="household_LAD">Kensington and Chelsea</attribute>
      <attribute class="java.lang.Boolean" name="hasLicence">true</attribute>
      <attribute class="java.lang.Boolean" name="hasBike">true</attribute>
      <attribute class="java.lang.Boolean" name="carAvail">true</attribute>
      <attribute class="java.lang.String" name="hid">hh_17</attribute>
    </attributes>
    <plan selected="yes">
      <activity type="home" x="526994.3459751657" y="177757.34620046697" end_time="07:18:00"/>
      <leg mode="walk" trav_time="00:44:00"/>
      <activity type="education" x="527869.8714827897" y="175546.94235272708" end_time="10:02:00"/>
      <leg mode="subway" trav_time="01:27:00"/>
      <activity type="work" x="528790.4138174242" y="175494.0185667815" end_time="15:29:00"/>
      <leg mode="subway" trav_time="00:49:00"/>
      <activity type="shop" x="525211.9973203059" y="177365.52560847663" end_time="18:18:00"/>
      <leg mode="bus" trav_time="01:12:00"/>
      <activity type="home" x="526994.3459751657" y="177757.34620046697"/>
    </plan>
  </person>
  <person id="agent_18">
    <attributes>
      <attribute class="java.lang.String" name="subpopulation">low income</attribute>
      <attribute class="java.lang.String" name="gender">female</attribute>
      <attribute class="java.lang.String" name="age">40 to 49</attribute>
      <attribute class="java.lang.String" name="household_zone">Wandsworth 004D</attribute>
      <attribute class="java.lang.String" name="household_LSOA">E02000926</attribute>
      <attribute class="java.lang.String" name="household_LAD">Wandsworth</attribute>
      <attribute class="java.lang.Boolean" name="hasLicence">true</attribute>
      <attribute class="java.lang.Boolean" name="hasBike">true</attribute>
      <attribute class="java.lang.Boolean" name="carAvail">true</attribute>
      <attribute class="java.lang.String" name="hid">hh_18</attribute>
    </attributes>
    <plan selected="yes">
      <activity type="home" x="526883.0036200306" y="176728.6378478431" end_time="08:39:00"/>
      <leg mode="bus" trav_time="00:55:00"/>
      <activity type="work" x="524535.1422327303" y="179541.6724105223" end_time="14:34:00"/>
      <leg mode="rail" trav_time="00:19:00"/>
      <activity type="work" x="523903.42036858853" y="179191.5140925646" end_time="19:53:00"/>
      <leg mode="rail" trav_time="00:50:00"/>
      <activity type="medical" x="525096.9661386167" y="178289.04817989806" end_time="21:43:00"/>
      <leg mode="bus" trav_time="00:45:00"/>
      <activity type="medical" x="527845.1373252843" y="179298.22860223736" end_time="23:28:00"/>
      <leg mode="walk" trav_time="00:30:00"/>
      <activity type="home" x="526883.0036200306" y="176728.6378478431"/>
    </plan>
  </person>
  <person id="agent_19">
    <attributes>
      <attribute class="java.lang.String" name="subpopulation">high income</attribute>
      <attribute class="java.lang.String" name="gender">male</attribute>
      <attribute class="java.lang.String" name="age">16 to 20</attribute>
      <attribute class="java.lang.String" name="household_zone">Kensington and Chelsea 019B</attribute>
      <attribute class="java.lang.String" name="household_LSOA">E02000595</attribute>
      <attribute class="java.lang.String" name="household_LAD">Kensington and Chelsea</attribute>
      <attribute class="java.lang.Boolean" name="hasLicence">true</attribute>
      <attribute class="java.lang.Boolean" name="hasBike">true</attribute>
      <attribute class="java.lang.Boolean" name="carAvail">true</attribute>
      <attribute class="java.lang.String" name="hid">hh_19</attribute>
    </attributes>